Version 4
SHEET 1 1548 852
WIRE 560 16 528 16
WIRE 736 16 704 16
WIRE 528 64 528 16
WIRE 704 64 704 16
WIRE 528 160 528 144
WIRE 704 160 704 144
WIRE -176 208 -192 208
WIRE -80 208 -96 208
WIRE -64 208 -80 208
WIRE 48 208 16 208
WIRE 448 208 48 208
WIRE 48 240 48 208
WIRE 336 304 320 304
WIRE 544 304 512 304
WIRE 720 304 608 304
WIRE 816 304 720 304
WIRE 832 304 816 304
WIRE 720 320 720 304
WIRE 320 336 320 304
WIRE 48 368 48 320
WIRE 224 368 48 368
WIRE 448 368 448 208
WIRE 448 368 416 368
WIRE 512 368 512 304
WIRE 512 368 448 368
WIRE 816 368 816 304
WIRE -80 400 -80 208
WIRE 224 400 -80 400
WIRE 624 416 608 416
WIRE 720 416 720 400
WIRE 720 416 688 416
WIRE 224 432 128 432
WIRE 720 432 720 416
WIRE -80 448 -80 400
WIRE 48 464 48 368
WIRE 128 464 128 432
WIRE 224 464 208 464
WIRE 512 464 416 464
WIRE 208 512 208 464
WIRE 320 512 320 496
WIRE 320 512 208 512
WIRE 512 528 512 464
WIRE 544 528 512 528
WIRE 720 528 720 512
WIRE 720 528 608 528
WIRE 816 528 816 448
WIRE 816 528 720 528
WIRE 832 528 816 528
WIRE -80 544 -80 528
WIRE 48 544 48 528
WIRE 128 544 128 528
WIRE 320 544 320 512
FLAG 704 160 0
FLAG 736 16 Vcc
IOPIN 736 16 BiDir
FLAG 528 160 0
FLAG 560 16 Vee
IOPIN 560 16 BiDir
FLAG 608 416 Vee
IOPIN 608 416 BiDir
FLAG 832 304 F1
IOPIN 832 304 Out
FLAG 832 528 F2
IOPIN 832 528 Out
FLAG 320 544 0
FLAG 336 304 Vcc
IOPIN 336 304 BiDir
FLAG 128 544 0
FLAG 48 544 0
FLAG -192 208 Vcc
IOPIN -192 208 BiDir
FLAG -80 544 0
SYMBOL voltage 704 48 R0
WINDOW 123 0 0 Left 2
WINDOW 39 24 124 Left 2
SYMATTR SpiceLine Rser=0.1
SYMATTR InstName V1
SYMATTR Value 5
SYMBOL res 800 352 R0
SYMATTR InstName Rf
SYMATTR Value 58
SYMBOL cap 608 288 R90
WINDOW 0 0 32 VBottom 2
WINDOW 3 32 32 VTop 2
SYMATTR InstName C2
SYMATTR Value 1µ
SYMBOL cap 608 512 R90
WINDOW 0 0 32 VBottom 2
WINDOW 3 32 32 VTop 2
SYMATTR InstName C3
SYMATTR Value 1µ
SYMBOL voltage 528 48 R0
WINDOW 123 0 0 Left 2
WINDOW 39 24 124 Left 2
SYMATTR SpiceLine Rser=0.1
SYMATTR InstName V2
SYMATTR Value -30
SYMBOL zener 624 432 R270
WINDOW 0 36 32 VTop 2
WINDOW 3 -4 32 VBottom 2
SYMATTR InstName D1
SYMATTR Value 1N750
SYMBOL res 704 304 R0
SYMATTR InstName R6
SYMATTR Value 100
SYMBOL res 704 416 R0
SYMATTR InstName R7
SYMATTR Value 100
SYMBOL res 32 224 R0
SYMATTR InstName R1
SYMATTR Value 2.2k
SYMBOL cap 112 464 R0
SYMATTR InstName C1
SYMATTR Value 1µF
SYMBOL cap 32 464 R0
SYMATTR InstName C4
SYMATTR Value 10nF
SYMBOL res 32 192 R90
WINDOW 0 0 56 VBottom 2
WINDOW 3 32 56 VTop 2
SYMATTR InstName R3
SYMATTR Value 10k
SYMBOL res -80 192 R90
WINDOW 0 0 56 VBottom 2
WINDOW 3 32 56 VTop 2
SYMATTR InstName R4
SYMATTR Value 10k
SYMBOL res -96 432 R0
SYMATTR InstName R5
SYMATTR Value 10k
SYMBOL LM4871 320 416 R0
SYMATTR InstName U1
TEXT 128 120 Left 2 !.tran 0 100m 10u 10u uic
